8
Final energy is -79.726820850995
C       0.8250132507    -0.3044255156    -0.0001793369
C      -0.0708590455     0.6761106267    -0.0016038483
H      -2.2168320223    -1.1357962646     0.0051867426
H      -2.9069107362    -1.4149124935     0.0006665373
H       1.2144012074    -0.7244594455    -0.9242788205
H       1.2098231719    -0.7260043834     0.9251338654
H      -0.4588134959     1.0959757755     0.9230324730
H      -0.4554227885     1.0988459975    -0.9270321510
8
Final energy is -79.801746097306
C      -0.7630691361    -0.0020190208     0.0034566355
C       0.7626325757     0.0019950530     0.0009730411
H      -1.1589043116    -0.5118960388     0.8883793728
H       1.1613211937     0.5116793524     0.8847263259
H      -1.1629572511     1.0174805269     0.0041985317
H      -1.1617577754    -0.5117033851    -0.8802966057
H       1.1625206820    -1.0175044968     0.0002310876
H       1.1584677813     0.5118721300    -0.8839496535
